<?xml version="1.0" encoding="UTF-8"?>

<!-- generated on 2024-03-14 12:39:54 by Eclipse SUMO sumo Version 1.19.0
-->

<configuration xmlns:xsi="http://www.w3.org/2001/XMLSchema-instance" xsi:noNamespaceSchemaLocation="http://sumo.dlr.de/xsd/sumoConfiguration.xsd">
    
    <input>
        <net-file value="inputPolygon/Busan.net.xml"/>
        <route-files value="inputPolygon/Busan.rou.xml"/>
    </input>

    <output>
        <fcd-output value="inputMobilitySUMO/Busan-mobility-trace.xml"/>
        <fcd-output.geo value="true"/>
    </output>

    <time>
        <begin value="10"/>
        <end value="100"/>
        <step-length value="0.1"/>
    </time>

    <processing>
        <collision.action value="none"/>
        <collision.mingap-factor value="0"/>
    </processing>

    <gui_only>
        <tracker-interval value="0.1"/>
    </gui_only>
    
</configuration>
